*HEADING
Cantilever Beam FEA with 15x Biased Dense TetGen C3D10 Mesh
*INCLUDE, INPUT=all.msh
*INCLUDE, INPUT=tip.nam
*MATERIAL, NAME=STEEL
*ELASTIC
 210000., 0.3
*DENSITY
 7.85e-9
*SOLID SECTION, ELSET=Eall, MATERIAL=STEEL
*BOUNDARY
*INCLUDE, INPUT=fix_123.bou
*STEP
*STATIC
*CLOAD
 Ntip, 2, -15.
*NODE PRINT, NSET=Ntip
 U
*NODE PRINT, NSET=Nall
 RF
*EL PRINT, ELSET=Eall
 S
*NODE FILE
 U
*EL FILE
 S, NOE
*END STEP
